Version 4
SHEET 1 1336 680
WIRE -128 -64 -480 -64
WIRE 640 -64 -128 -64
WIRE 1136 -64 640 -64
WIRE 960 -32 848 -32
WIRE 1072 -32 1040 -32
WIRE -128 16 -128 -64
WIRE -368 32 -384 32
WIRE -160 32 -288 32
WIRE -160 64 -192 64
WIRE 160 64 128 64
WIRE 288 64 240 64
WIRE 368 64 352 64
WIRE 432 64 368 64
WIRE 592 64 512 64
WIRE 736 64 592 64
WIRE 848 64 848 -32
WIRE 848 64 816 64
WIRE 864 64 848 64
WIRE 960 64 944 64
WIRE 1072 64 1072 -32
WIRE 1072 64 1024 64
WIRE -384 80 -384 32
WIRE -192 80 -192 64
WIRE 368 96 368 64
WIRE 128 112 128 64
WIRE 128 112 16 112
WIRE -480 128 -480 -64
WIRE 640 128 640 -64
WIRE 640 128 496 128
WIRE 848 128 848 64
WIRE 960 128 960 64
WIRE 960 128 944 128
WIRE 464 144 448 144
WIRE 1136 144 1136 -64
WIRE 1136 144 992 144
WIRE -160 160 -192 160
WIRE 592 160 592 64
WIRE 592 160 528 160
WIRE 944 160 944 128
WIRE 960 160 944 160
WIRE 368 176 368 160
WIRE 464 176 368 176
WIRE 1072 176 1072 64
WIRE 1072 176 1024 176
WIRE -160 192 -192 192
WIRE -48 192 -48 176
WIRE -48 192 -80 192
WIRE 368 192 368 176
WIRE 960 192 944 192
WIRE -416 208 -480 208
WIRE -384 208 -384 160
WIRE -384 208 -416 208
WIRE -368 208 -384 208
WIRE -192 208 -192 192
WIRE -192 208 -288 208
WIRE -80 208 -80 192
WIRE -416 240 -416 208
WIRE 848 240 848 192
WIRE 944 240 944 192
WIRE -128 256 -128 208
WIRE -128 256 -240 256
WIRE -480 272 -480 208
WIRE 448 272 448 144
WIRE 512 272 448 272
WIRE 592 272 592 160
WIRE 368 288 368 272
WIRE 448 368 448 352
WIRE -480 448 -480 352
WIRE -240 448 -240 256
WIRE -240 448 -480 448
WIRE 496 448 496 192
WIRE 496 448 -240 448
WIRE 992 448 992 208
WIRE 992 448 496 448
FLAG -416 240 0
FLAG 448 368 0
FLAG 368 288 0
FLAG 848 240 0
FLAG 944 240 0
FLAG -80 208 0
SYMBOL voltage -480 112 R0
WINDOW 123 0 0 Left 0
WINDOW 39 0 0 Left 0
SYMATTR InstName V2
SYMATTR Value 2.5v
SYMBOL voltage -480 256 R0
WINDOW 123 0 0 Left 0
WINDOW 39 0 0 Left 0
SYMATTR InstName V3
SYMATTR Value 2.5v
SYMBOL voltage -384 64 R0
WINDOW 123 -1 85 Left 0
WINDOW 39 0 0 Left 0
WINDOW 3 -1 113 Left 0
SYMATTR Value2 AC 1e-3
SYMATTR Value PULSE(0 5e-4 2ms 2ms 2ms 10ms 24ms 3)
SYMATTR InstName V1
SYMBOL res -208 64 R0
SYMATTR InstName R2
SYMATTR Value 2k
SYMBOL cap 384 160 R180
WINDOW 0 24 64 Left 0
WINDOW 3 24 8 Left 0
SYMATTR InstName C2
SYMATTR Value 1µf
SYMBOL cap 352 48 R90
WINDOW 0 0 32 VBottom 0
WINDOW 3 32 32 VTop 0
SYMATTR InstName C4
SYMATTR Value 1µf
SYMBOL res 496 288 R270
WINDOW 0 32 56 VTop 0
WINDOW 3 0 56 VBottom 0
SYMATTR InstName R3
SYMATTR Value 47k
SYMBOL res 464 368 R180
WINDOW 0 36 76 Left 0
WINDOW 3 36 40 Left 0
SYMATTR InstName R4
SYMATTR Value 33k
SYMBOL res 832 48 R90
WINDOW 0 0 56 VBottom 0
WINDOW 3 32 56 VTop 0
SYMATTR InstName R5
SYMATTR Value 9.2k
SYMBOL res 960 48 R90
WINDOW 0 0 56 VBottom 0
WINDOW 3 32 56 VTop 0
SYMATTR InstName R6
SYMATTR Value 6.5k
SYMBOL res 1056 -48 R90
WINDOW 0 0 56 VBottom 0
WINDOW 3 36 57 VTop 0
SYMATTR InstName R7
SYMATTR Value 22k
SYMBOL cap 832 128 R0
SYMATTR InstName C5
SYMATTR Value 68nf
SYMBOL cap 1024 48 R90
WINDOW 0 0 32 VBottom 0
WINDOW 3 32 32 VTop 0
SYMATTR InstName C6
SYMATTR Value 0.01µf
SYMBOL res -272 16 R90
WINDOW 0 0 56 VBottom 0
WINDOW 3 32 56 VTop 0
SYMATTR InstName R8
SYMATTR Value 18k
SYMBOL res -272 192 R90
WINDOW 0 0 56 VBottom 0
WINDOW 3 32 56 VTop 0
SYMATTR InstName R9
SYMATTR Value 18k
SYMBOL Opamps\\LT1789-1 -128 112 R0
SYMATTR InstName U1
SYMBOL Opamps\\LT2178 496 96 R0
SYMATTR InstName U2
SYMBOL Opamps\\LT2178 992 112 R0
SYMATTR InstName U3
SYMBOL res 352 176 R0
SYMATTR InstName R1
SYMATTR Value 12.5k
SYMBOL res 528 48 R90
WINDOW 0 0 56 VBottom 0
WINDOW 3 32 56 VTop 0
SYMATTR InstName R11
SYMATTR Value 20k
SYMBOL res 256 48 R90
WINDOW 0 0 56 VBottom 0
WINDOW 3 32 56 VTop 0
SYMATTR InstName r30
SYMATTR Value 3k
TEXT -72 472 Left 0 !;tran 0 100ms 0ns 200us
TEXT -72 496 Left 0 !.ac oct 30 0.01 1e6
